1
      *FORTRAN*          ENTER 

0
      *****  TEST(01)  *****

0                    32767              0     1234567890         -27827
0           -0.6243852E+11  0.3145263E+00  0.0000000E+00 -0.4139265E+07  0.9326170E+26  0.3337777E-13

              T   F
0             0.1000000000000000D+10   0.3456789098765430D+66   0.8500026659412973D+25  -0.9278992103469699D-46
              0.7321987654321000D+74  -0.4567890123456789D-75



 &NAMEXY C2= (9.32617E+25,3.337777E-14),DC1= (1000000000.,3.45678909876543E+65)
 ,R1= -6.243852E+10,I2= 0,DI1= 1234567890,L2= F,D2= -4.567890123456789E-76/
1

      *****  TEST(02)  *****

0             0.7321987654321000D+74
                      0.3145263    
0                  (   0.000000      -4139265.    )
+               C1=


           (   0.1000000000000000D+10   0.3456789098765430D+66)
+          (   0.1000000000000000D+10   0.3456789098765430D+66)




A1234567890123456789012345678901234567890123456789012345678901234567890123456789012345678901234567890ABCDEFGHIJKLMNOPQRSTUVWXYZ12345
0
      *FORTRAN*          EXIT
exit 0
