0   SUB-1
 &NAMEL A1= 1.1,A2= 1.2,A3= 1.3,A4= 3.0854497,C1= .095310204,C2= 1.1,C3= 1.1,
 C4= .98544973,D1= 1.1,D3= 1.1,D4= 1.1,E1= 1.1/
0   SUB-2
 &NAMEL A1= 7.19531,A2= 10.420116,A3= 9.240176,A4= 2.1561134,C1= 1.9734294,C2=
 3.320117,C3= 1.1,C4= 5.611347E-02,D1= .095310204,D3= 1.1401755,D4=
 5.611347E-02,E1= 1.9734294/
0   SUB-3
 &NAMEL A1= 7.19531,A2= 10.420116,A3= 9.240176,A4= 2.933537,C1= 1.9734294,C2=
 3.320117,C3= 1.1,C4= .833537,D1= .095310204,D3= 1.1401755,D4= .833537,E1=
 1.9734294/
0   SUB-4
 &NAMEL A1= 7.19531,A2= 10.420116,A3= 9.240176,A4= 2.3065576,C1= 1.9734294,C2=
 3.320117,C3= 1.1401755,C4= .20655787,D1= .095310204,D3= 1.1401755,D4=
 .20655787,E1= 1.9734294/
exit 0
