 &NAMEL I1= 16,I2= 19,I3= 38,I4= 21,I5R1= 0,R2= 8.,R3= 20.,R4= 40.,A= 7. 16.
 19. 8. 10. 12. 14. 16. 18. 20.,B= 20. 19. 75. 74. 73. 0. 0. 0. 0. 0.,D= 2. 3.
 9. 12. 15. 7. 8. 9. 1. .8,C1= (21.,2.),C2= (21.,365.),C3= (5.,5.),C4= (78165.,
125025.),CI= 0.,J= 6,K= 6,L= 6,LC1= 3,LC2= 2/
exit 0
