0   SUB-1

 &NAMEL A= 20. 104. 0. 0. 0. 0. 0. 0.,B= 1.,I= 3,J= 0,K= 3,M= 16,N= 64/
0   SUB-2

 &NAMEL A= 20. 104. 6. 80. 0. 0. 0. 0.,B= 1.,I= 5,J= 0,K= 5,M= 4,N= 64/
0   SUB-3

 &NAMEL A= 20. 104. 28. 1. 17. 0. 0. 0.,B= 1.,I= 7,J= 2,K= 6,M= 1,N= 16/
0   SUB-4

 &NAMEL A= 20. 104. 6. 80. 17. -2. 8. 0.,B= 1.,I= 9,J= 2,K= 8,M= 0,N= 16/
exit 0
