0   SUB-1
 &NAMEL IA= 5 0 0 0 0 0 0 0 0 0,IB= 0 0 0 0 0 0 0 0 0 0,IC= 0 2 0 0 0 0 0 0 0 0
 ,IW1= 6,IW2= 7,IW3= 2,N1= 1,N2= 3/
0   SUB-2
 &NAMEL IA= 5 0 15 0 0 0 0 0 0 0,IB= 0 0 0 0 0 0 0 0 0 0,IC= 0 2 0 0 0 0 0 0 4
 0,IW1= 18,IW2= 24,IW3= 9,N1= 1,N2= 3/
0   SUB-3
 &NAMEL IA= 5 0 0 0 0 0 0 0 0 0,IB= 1 0 0 0 0 0 0 0 0 0,IC= 3 2 0 0 0 0 0 0 0 0
 ,IW1= 6,IW2= 8,IW3= 4,N1= 1,N2= 3/
0   SUB-4
 &NAMEL IA= 5 0 0 0 0 0 0 0 0 0,IB= 0 0 0 0 0 0 0 0 0 0,IC= 0 2 0 0 0 0 0 0 0 0
 ,IW1= 6,IW2= 7,IW3= 2,N1= 1,N2= 3/
0   SUB-5
 &NAMEL IA= 5 0 0 0 0 0 0 0 0 0,IB= 0 0 0 0 0 0 0 0 0 0,IC= 0 2 0 0 0 0 0 0 0 0
 ,IW1= 6,IW2= 7,IW3= 2,N1= 0,N2= 1/
exit 0
