0   SUB-1
 &NAMEL A= 0 0 0 0 0 0 0 0 8 0 0 0 0 0 0 0 0 0 0 0 0 0 0 0 0 0 0 0 0 0 0 0 0 0
 0 0 0 0 0 0 0 0 0 0 0 0 0 0 0,B= 5 0 0 0 0 0 0 12,C= 5. 216. -6. 0. 0. 0. 0.,
 D= 2.,E= 1.,F= 4.,I= 2,J= 4,M= 4,N= 1/
0   SUB-2
 &NAMEL A= 8 0 0 0 0 0 0 0 10 0 0 0 0 0 0 0 16 0 0 0 0 0 0 0 16 0 0 0 0 0 0 0 0
 0 0 0 0 0 0 0 0 0 0 0 0 0 0 0 0,B= 4 0 0 0 0 0 0 15,C= 5. 5. 5. 5.3333335 9.
 0. 0.,D= 0.,E= 0.,F= 0.,I= 4,J= 8,M= 4,N= 1/
0   SUB-3
 &NAMEL A= 0 0 0 0 0 0 0 0 8 0 0 0 0 0 0 0 4 0 0 0 0 0 0 0 8 0 0 0 0 0 0 0 8 0
 0 0 0 0 0 0 0 0 0 0 0 0 0 0 0,B= 9 0 0 0 0 0 0 20,C= 5. 216. 14. 5. 5.3333335
 9. 0.,D= 2.,E= 0.,F= 4.,I= 5,J= 8,M= 4,N= 1/
0   SUB-4
 &NAMEL A= 8 0 0 0 0 0 0 0 0 0 0 0 0 0 0 0 0 0 0 0 0 0 0 0 0 0 0 0 0 0 0 0 0 0
 0 0 0 0 0 0 0 0 0 0 0 0 0 0 0,B= 0 0 0 0 0 0 0 7,C= 5. -10. 0. 0. 0. 0. 0.,D=
 0.,E= 0.,F= 0.,I= 1,J= 4,M= 4,N= 1/
0   SUB-5
 &NAMEL A= 0 0 0 0 0 0 0 0 8 0 0 0 0 0 0 0 8 0 0 0 0 0 0 0 6 0 0 0 0 0 0 0 8 0
 0 0 0 0 0 0 8 0 0 0 0 0 0 0 0,B= 10 0 0 0 0 0 0 24,C= 5. 216. -3. 28. .2
 15.037037 15.,D= 2.,E= 0.,F= 4.,I= 6,J= 10,M= 5,N= 1/
exit 0
