1SPECIAL CASE (05)
 &NAMEL A= 1. 6. 11. 16. 21. 26.,B= 3. 0. -1. -2. -3. -4.,C= 2. 4. 6. 8. 10.,D=
 1.,E= 10.,F= -8.,G= 1.,ISW1= 11,ISW2= 2,ISW3= 10,ISW4= 5/
exit 0
