0   SUB-1
 &NAMEL M1= 56,M2= 64,M3= 0,M4= 0,J= 4/
0   SUB-2
 &NAMEL M1= 70,M2= 79,M3= 36,M4= 45,J= 4/
0   SUB-3
 &NAMEL M1= 190,M2= 223,M3= 132,M4= 165,J= 28/
exit 0
