1 SPECIAL  CASE  (01) 
 &NAMEL A= 20.,B= 5.,C= 2.,D= 5.,E= 6.,F= 6.,RK1= 20.,RK2= 20.,RK3= 20.,X= 4.,
 Y= -.41614684,I= 3,T= 20.,ISW= 1,A1= 4.,A3= 2.,B1= 3.,D3= 1.4142135/
exit 0
