0   SUB-1
 &NAMEL IA= 2 0 0 0 0,IB= 0 8 0 0 0,IW1= 62,IW2= 2,IW3= 68,IW4= 2/
0   SUB-2
 &NAMEL IA= 2 0 0 0 0,IB= 0 8 0 0 0,IW1= 62,IW2= 2,IW3= 68,IW4= 2/
0   SUB-3
 &NAMEL IA= 2 4 0 0 0,IB= 0 8 0 0 20,IW1= 58,IW2= 56,IW3= 68,IW4= 2/
exit 0
