0   SUB-1
 &NAMEL A= 4.,B= 68.666664,C= (2.,-2.),C1= (1.,-1.)/
0   SUB-2
 &NAMEL A= 324.75238,B= 498.4762,C= (3.6666662,-3.6666662),C1= (1.,-1.)/
0   SUB-3
 &NAMEL A= 7.,B= 69.666664,C= (2.,-2.),C1= (1.,-1.)/
0   SUB-4
 &NAMEL A= 325.3175,B= 493.82547,C= (3.9999995,-3.9999995),C1= (1.,-1.)/
0   SUB-5
 &NAMEL A= 325.3175,B= 493.82547,C= (3.9999995,-3.9999995),C1= (1.,-1.)/
exit 0
