0   SUB-1
 &NAMEL A1= 13.3,A2= -8.2,A3= 47.816997,A4= .13071896,B1= 3.1,B2= 3.2,B3= 3.3,
 B4= 3.4,C1= 5.2,C2= -1.,C3= 7.5899997,C4= .7058824,D1= 5.2,D2= -1.,D3=
 7.5899997,D4= .7058824,E1= 5.2,E2= -1.,E3= 7.5899997,E4= .7058824,F1= 5.2,F2=
 -1.,F3= 7.5899997,F4= 3.844675E-02,G1= 5.2,G2= -1.,G3= 157.7961,G4=
 3.844675E-02,H1= 5.2,H2= -11.4,H3= 157.7961,H4= 3.844675E-02/
0   SUB-2
 &NAMEL A1= 13.3,A2= -8.2,A3= 47.816997,A4= .13071896,B1= 3.1,B2= 3.2,B3= 3.3,
 B4= 3.4,C1= 5.2,C2= -1.,C3= 7.5899997,C4= .7058824,D1= 5.2,D2= -1.,D3=
 7.5899997,D4= .7058824,E1= 5.2,E2= -1.,E3= 7.5899997,E4= 3.844675E-02,F1= 5.2,
 F2= -1.,F3= 7.5899997,F4= 3.844675E-02,G1= 5.2,G2= -1.,G3= 157.7961,G4=
 3.844675E-02,H1= 5.2,H2= -11.4,H3= 157.7961,H4= 3.844675E-02/
0   SUB-3
 &NAMEL A1= 13.3,A2= -8.2,A3= 47.816997,A4= .13071896,B1= 3.1,B2= 3.2,B3= 3.3,
 B4= 3.4,C1= 5.2,C2= -1.,C3= 7.5899997,C4= .7058824,D1= 5.2,D2= -1.,D3=
 7.5899997,D4= .7058824,E1= 5.2,E2= -1.,E3= 157.7961,E4= .7058824,F1= 5.2,F2=
 -1.,F3= 157.7961,F4= 3.844675E-02,G1= 5.2,G2= -1.,G3= 157.7961,G4=
 3.844675E-02,H1= 5.2,H2= -11.4,H3= 157.7961,H4= 3.844675E-02/
0   SUB-4
 &NAMEL A1= 13.3,A2= -8.2,A3= 47.816997,A4= .13071896,B1= 3.1,B2= 3.2,B3= 3.3,
 B4= 3.4,C1= 5.2,C2= -1.,C3= 7.5899997,C4= .7058824,D1= 5.2,D2= -1.,D3=
 7.5899997,D4= .7058824,E1= 5.2,E2= -11.4,E3= 7.5899997,E4= .7058824,F1= 5.2,
 F2= -11.4,F3= 7.5899997,F4= 3.844675E-02,G1= 5.2,G2= -11.4,G3= 157.7961,G4=
 3.844675E-02,H1= 5.2,H2= -11.4,H3= 157.7961,H4= 3.844675E-02/
0   SUB-5
 &NAMEL A1= 24.5,A2= -18.599998,A3= 994.1154,A4= .13071896,B1= 3.1,B2= 3.2,B3=
 3.3,B4= 3.4,C1= 16.4,C2= -11.4,C3= 157.7961,C4= .7058824,D1= 16.4,D2= -11.4,
 D3= 157.7961,D4= .7058824,E1= 16.4,E2= -21.8,E3= 3280.5808,E4= 3.844675E-02,
 F1= 16.4,F2= -21.8,F3= 3280.5808,F4= 3.844675E-02,G1= 16.4,G2= -21.8,G3=
 3280.5808,G4= 3.844675E-02,H1= 16.4,H2= -21.8,H3= 3280.5808,H4= 3.844675E-02/
exit 0
