0   SUB-1
 &NAMEL A= 10.,B= -241.,C= -216.9585,K1= 2,M= 2193,N= 2187/
0   SUB-2
 &NAMEL A= 36.,B= -23.,C= -563.43475,K1= 2,M= 263,N= 243/
0   SUB-3
 &NAMEL A= 132.,B= 1.,C= 79.,K1= 2,M= 79,N= 47/
0   SUB-4
 &NAMEL A= 516.,B= 4.,C= 2094.,K1= 2,M= 159,N= 3/
0   SUB-5
 &NAMEL A= 36.,B= -23.,C= -563.43475,K1= 2,M= 263,N= 255/
exit 0
