0   SUB-1
 &NAMEL A= 159.,C= (2.,1.),C1= (42.,29.),C2= (13.,8.),C3= (55.,37.),K= 2,L= 3,
 M= 50,N= 15,IC1= 5,IC2= 3/
0   SUB-2
 &NAMEL A= 174.,C= (2.,1.),C1= (42.,29.),C2= (13.,8.),C3= (55.,37.),K= 2,L= 3,
 M= 50,N= 15,IC1= 6,IC2= 3/
0   SUB-3
 &NAMEL A= 134.,C= (2.,1.),C1= (42.,29.),C2= (13.,8.),C3= (55.,37.),K= 2,L= 3,
 M= 50,N= 15,IC1= 5,IC2= 3/
0   SUB-4
 &NAMEL A= 144.,C= (2.,1.),C1= (21.,4.),C2= (8.,3.),C3= (29.,7.),K= 2,L= 3,M=
 40,N= 15,IC1= 6,IC2= 3/
exit 0
