0   SUB-1
 &NAMEL A= 1.,B= -2.2,C= .8,D= -249.4,E= -5.,I= 0,K= -2/
0   SUB-2
 &NAMEL A= 1.,B= -8.,C= 1.125,D= -261.,E= -8.,I= 0,K= -2/
0   SUB-3
 &NAMEL A= -47.,B= -23.,C= .75,D= -267.,E= -4.,I= 0,K= -1/
0   SUB-4
 &NAMEL A= 17.,B= 9.,C= .5,D= -235.,E= -2.,I= 0,K= -2/
0   SUB-5
 &NAMEL A= 1.,B= -39.,C= 1.25,D= -203.,E= -4.,I= 0,K= -1/
exit 0
