0   SUB-1
 &NAMEL C1= (39.,36.),C2= (29.,36.),C3= (40.,27.),I= 85,J= 40,K= 29/
0   SUB-2
 &NAMEL C1= (124.,75.),C2= (114.,75.),C3= (99.,86.),I= 276,J= 99,K= 88/
0   SUB-3
 &NAMEL C1= (5.,0.),C2= (-5.,0.),C3= (15.,2.),I= 8,J= 15,K= 4/
0   SUB-4
 &NAMEL C1= (13.,14.),C2= (3.,14.),C3= (22.,9.),I= 26,J= 22,K= 11/
exit 0
