1 S P E C I A L    C A S E  (02)
 &NAMEL A= 5.,B= 4.,C= 3.,D= 2.,E= 1.,B1= 5.,B2= 5.,B3= 5.,B4= 6.6666665,C1=
 (1.5,2.5),C2= (1.5,2.5),C3= (1.5,2.5),C4= (1.5,2.5),D1= 30.,D2= -1.5,D3= 25.,
 D4= 15.,ISW2= 1/
exit 0
