0   SUB-1
 &NAMEL K1= 2,K2= 5,K3= 7,M1= 1,M2= 7,M3= 3,N1= 3,N2= 4/
0   SUB-2
 &NAMEL K1= 2,K2= 5,K3= 7,M1= 19,M2= 5,M3= 2,N1= 3,N2= 4/
0   SUB-3
 &NAMEL K1= 2,K2= 5,K3= 7,M1= 13,M2= 2,M3= 9,N1= 3,N2= 4/
0   SUB-4
 &NAMEL K1= 2,K2= 5,K3= 7,M1= 44,M2= 4,M3= 12,N1= 3,N2= 4/
0   SUB-5
 &NAMEL K1= 2,K2= 5,K3= 7,M1= -11,M2= 4,M3= -6,N1= 3,N2= 4/
exit 0
