0   SUB-1
 &NAMEL K1= 1,K2= 1,K3= 20,K4= 20,M1= 0,M2= -4,M3= 19,M4= -59,N1= 1,N2= 2/
0   SUB-2
 &NAMEL K1= 1,K2= 1,K3= 20,K4= 20,M1= 140,M2= 423,M3= 44,M4= 4,N1= 1,N2= 2/
0   SUB-3
 &NAMEL K1= 1,K2= 1,K3= 20,K4= 20,M1= 2,M2= -6,M3= 20,M4= -56,N1= 1,N2= 2/
0   SUB-4
 &NAMEL K1= 1,K2= 1,K3= 20,K4= 20,M1= 133,M2= 383,M3= 43,M4= 1,N1= 1,N2= 2/
exit 0
